$ MSC.Nastran input file created on January   03, 2021 at 08:56:18 by
$ Patran 2017.0.1
$ Linear Static Analysis, Database
$ Direct Text Input for Bulk Data
$ Elements and Element Properties for region : pbeam.1
PBEAM    1       1      4.3444-52.307-101.032-10        2.643-10
*       -.004566        .0014366        -.004427        1.2124-4
*       .004427         1.2124-4        .0045088        .0016209
         YES    1.      4.3444-52.307-101.032-10        2.643-10
*       -.004566        .0014366        -.004427        1.2124-4
*       .004427         1.2124-4        .0045088        .0016209
        .874694 .827685
                                                .003            .003
$ Pset: "pbeam.1" will be imported as: "pbeam.1"
CBEAM    337     1       38      37      0.      0.     .001
CBEAM    338     1       37      36      0.      0.     .001
CBEAM    339     1       36      35      0.      0.     .001
CBEAM    340     1       35      34      0.      0.     .001
CBEAM    341     1       34      33      0.      0.     .001
CBEAM    342     1       33      32      0.      0.     .001
CBEAM    343     1       32      31      0.      0.     .001
CBEAM    344     1       31      30      0.      0.     .001
CBEAM    837     1       30      619     0.      0.     .001
CBEAM    838     1       619     618     0.      0.     .001
CBEAM    839     1       618     617     0.      0.     .001
CBEAM    840     1       617     616     0.      0.     .001
CBEAM    841     1       616     615     0.      0.     .001
CBEAM    842     1       615     614     0.      0.     .001
CBEAM    843     1       614     613     0.      0.     .001
CBEAM    844     1       613     612     0.      0.     .001
CBEAM    1337    1       612     1201    0.      0.     .001
CBEAM    1338    1       1201    1200    0.      0.     .001
CBEAM    1339    1       1200    1199    0.      0.     .001
CBEAM    1340    1       1199    1198    0.      0.     .001
$ ... 95 like lines cut
$ Elements and Element Properties for region : pbeam.2
PBEAM    2       1      8.1149-61.853-121.647-11        6.189-12
*       -2.5-4          .0036975        -1.807-4        -.002004
*       1.835-13        -.002106        2.5-4           .0036975
         YES    1.      8.1149-61.853-121.647-11        6.189-12
*       -2.5-4          .0036975        -1.807-4        -.002004
*       1.835-13        -.002106        2.5-4           .0036975
        .693819 .88083
                                                -.003           -.003
$ Pset: "pbeam.2" will be imported as: "pbeam.2"
CBEAM    345     2       1       2       0.      0.     .001
CBEAM    346     2       2       3       0.      0.     .001
CBEAM    347     2       3       4       0.      0.     .001
CBEAM    348     2       4       5       0.      0.     .001
CBEAM    349     2       5       6       0.      0.     .001
CBEAM    350     2       6       7       0.      0.     .001
CBEAM    351     2       7       8       0.      0.     .001
CBEAM    352     2       8       9       0.      0.     .001
CBEAM    845     2       9       584     0.      0.     .001
CBEAM    846     2       584     585     0.      0.     .001
CBEAM    847     2       585     586     0.      0.     .001
CBEAM    848     2       586     587     0.      0.     .001
CBEAM    849     2       587     588     0.      0.     .001
CBEAM    850     2       588     589     0.      0.     .001
CBEAM    851     2       589     590     0.      0.     .001
CBEAM    852     2       590     591     0.      0.     .001
CBEAM    1345    2       591     1166    0.      0.     .001
CBEAM    1346    2       1166    1167    0.      0.     .001
CBEAM    1347    2       1167    1168    0.      0.     .001
CBEAM    1348    2       1168    1169    0.      0.     .001
$ ... 95 like lines cut
$ Elements and Element Properties for region : pbeam.5
PBEAM    5       1      3.25-5  1.144-106.771-11        1.44-10
*       -.00325         .0025           -.00325         -.0025
*       .00325          -.0025          .00325          .0025
         YES    1.      3.25-5  1.144-106.771-11        1.44-10
*       -.00325         .0025           -.00325         -.0025
*       .00325          -.0025          .00325          .0025
        .850019 .850302
*
*       -.00325                         -.00325
$ Pset: "pbeam.5" will be imported as: "pbeam.5"
CBEAM    297     5       3984    3983    0.      0.     .001
CBEAM    374     5       43      44      0.      0.     .001
CBEAM    874     5       25      24      0.      0.     .001
CBEAM    1374    5       607     606     0.      0.     .001
CBEAM    1874    5       1189    1188    0.      0.     .001
CBEAM    2374    5       1771    1770    0.      0.     .001
CBEAM    2874    5       2353    2352    0.      0.     .001
CBEAM    3374    5       2935    2934    0.      0.     .001
CBEAM    3874    5       3517    3516    0.      0.     .001
CBEAM    4374    5       4099    4098    0.      0.     .001
CBEAM    4874    5       4681    4680    0.      0.     .001
CBEAM    5374    5       5263    5262    0.      0.     .001
CBEAM    5874    5       6445    6446    0.      0.     .001
CBEAM    6374    5       7027    7028    0.      0.     .001
CBEAM    7000    5       461     460     0.      0.     .001
CBEAM    7121    5       828     827     0.      0.     .001
CBEAM    7229    5       1561    1560    0.      0.     .001
$ Elements and Element Properties for region : pbeam.6
PBEAM    6       1      3.8-5   1.829-107.917-11        1.878-10
        -.0038  .0025   -.0038  -.0025  .0038   -.0025  .0038   .0025
         YES    1.      3.8-5   1.829-107.917-11        1.878-10
        -.0038  .0025   -.0038  -.0025  .0038   -.0025  .0038   .0025
        .849987 .850399
                                        -.0038          -.0038
$ Pset: "pbeam.6" will be imported as: "pbeam.6"
CBEAM    299     6       3983    3971    0.      0.     .001
CBEAM    300     6       3971    3970    0.      0.     .001
CBEAM    376     6       44      45      0.      0.     .001
CBEAM    377     6       45      46      0.      0.     .001
CBEAM    876     6       24      23      0.      0.     .001
CBEAM    877     6       23      22      0.      0.     .001
CBEAM    1376    6       606     605     0.      0.     .001
CBEAM    1377    6       605     604     0.      0.     .001
CBEAM    1876    6       1188    1187    0.      0.     .001
CBEAM    1877    6       1187    1186    0.      0.     .001
CBEAM    2376    6       1770    1769    0.      0.     .001
CBEAM    2377    6       1769    1768    0.      0.     .001
CBEAM    2876    6       2352    2351    0.      0.     .001
CBEAM    2877    6       2351    2350    0.      0.     .001
CBEAM    3376    6       2934    2933    0.      0.     .001
CBEAM    3377    6       2933    2932    0.      0.     .001
CBEAM    3876    6       3516    3515    0.      0.     .001
CBEAM    3877    6       3515    3514    0.      0.     .001
CBEAM    4376    6       4098    4097    0.      0.     .001
CBEAM    4377    6       4097    4096    0.      0.     .001
$ ... 14 like lines cut
$ Elements and Element Properties for region : pbeam.7
PBEAM    7       1      2.5-5   5.208-115.208-11        8.795-11
        -.0025  .0025   -.0025  -.0025  .0025   -.0025  .0025   .0025
         YES    1.      2.5-5   5.208-115.208-11        8.795-11
        -.0025  .0025   -.0025  -.0025  .0025   -.0025  .0025   .0025
        .850116 .850116
                                        -.0025          -.0025
$ Pset: "pbeam.7" will be imported as: "pbeam.7"
CBEAM    304     7       3970    3969    0.      0.     .001
CBEAM    305     7       3969    3968    0.      0.     .001
CBEAM    306     7       3968    3967    0.      0.     .001
CBEAM    307     7       3967    3966    0.      0.     .001
CBEAM    308     7       3966    3965    0.      0.     .001
CBEAM    309     7       3965    3964    0.      0.     .001
CBEAM    381     7       46      47      0.      0.     .001
CBEAM    382     7       47      48      0.      0.     .001
CBEAM    383     7       48      49      0.      0.     .001
CBEAM    384     7       49      50      0.      0.     .001
CBEAM    385     7       50      51      0.      0.     .001
CBEAM    386     7       51      52      0.      0.     .001
CBEAM    881     7       22      21      0.      0.     .001
CBEAM    882     7       21      20      0.      0.     .001
CBEAM    883     7       20      19      0.      0.     .001
CBEAM    884     7       19      18      0.      0.     .001
CBEAM    885     7       18      17      0.      0.     .001
CBEAM    886     7       17      16      0.      0.     .001
CBEAM    1381    7       604     603     0.      0.     .001
CBEAM    1382    7       603     602     0.      0.     .001
$ ... 82 like lines cut
$ Elements and Element Properties for region : pbeam.8
PBEAM    8       1      2.-5    2.667-114.167-11        5.501-11
        -.002   .0025   -.002   -.0025  .002    -.0025  .002    .0025
         YES    1.      2.-5    2.667-114.167-11        5.501-11
        -.002   .0025   -.002   -.0025  .002    -.0025  .002    .0025
        .850252 .850044
                                        -.002           -.002
$ Pset: "pbeam.8" will be imported as: "pbeam.8"
CBEAM    316     8       3964    3963    0.      0.     .001
CBEAM    317     8       3963    3962    0.      0.     .001
CBEAM    393     8       52      53      0.      0.     .001
CBEAM    394     8       53      54      0.      0.     .001
CBEAM    893     8       16      15      0.      0.     .001
CBEAM    894     8       15      14      0.      0.     .001
CBEAM    1393    8       598     597     0.      0.     .001
CBEAM    1394    8       597     596     0.      0.     .001
CBEAM    1893    8       1180    1179    0.      0.     .001
CBEAM    1894    8       1179    1178    0.      0.     .001
CBEAM    2393    8       1762    1761    0.      0.     .001
CBEAM    2394    8       1761    1760    0.      0.     .001
CBEAM    2893    8       2344    2343    0.      0.     .001
CBEAM    2894    8       2343    2342    0.      0.     .001
CBEAM    3393    8       2926    2925    0.      0.     .001
CBEAM    3394    8       2925    2924    0.      0.     .001
CBEAM    3893    8       3508    3507    0.      0.     .001
CBEAM    3894    8       3507    3506    0.      0.     .001
CBEAM    4393    8       4090    4089    0.      0.     .001
CBEAM    4394    8       4089    4088    0.      0.     .001
$ ... 14 like lines cut
$ Elements and Element Properties for region : pbeam.9
PBEAM    9       1      1.-5    3.333-122.083-11        9.989-12
        -.001   .0025   -.001   -.0025  .001    -.0025  .001    .0025
         YES    1.      1.-5    3.333-122.083-11        9.989-12
        -.001   .0025   -.001   -.0025  .001    -.0025  .001    .0025
        .851072 .849897
                                        -.001           -.001
$ Pset: "pbeam.9" will be imported as: "pbeam.9"
CBEAM    320     9       3962    3961    0.      0.     .001
CBEAM    397     9       54      55      0.      0.     .001
CBEAM    897     9       14      13      0.      0.     .001
CBEAM    1397    9       596     595     0.      0.     .001
CBEAM    1897    9       1178    1177    0.      0.     .001
CBEAM    2397    9       1760    1759    0.      0.     .001
CBEAM    2897    9       2342    2341    0.      0.     .001
CBEAM    3397    9       2924    2923    0.      0.     .001
CBEAM    3897    9       3506    3505    0.      0.     .001
CBEAM    4397    9       4088    4087    0.      0.     .001
CBEAM    4897    9       4670    4669    0.      0.     .001
CBEAM    5397    9       5252    5251    0.      0.     .001
CBEAM    5897    9       6456    6457    0.      0.     .001
CBEAM    6397    9       7038    7039    0.      0.     .001
CBEAM    7036    9       438     437     0.      0.     .001
CBEAM    7144    9       817     816     0.      0.     .001
CBEAM    7252    9       1410    1409    0.      0.     .001
$ Elements and Element Properties for region : pbeam.13
PBEAM    13      1      7.854-5 4.909-104.909-10        9.809-10
        -.005                   -.005   .005                    .005
         YES    1.      7.854-5 4.909-104.909-10        9.809-10
        -.005                   -.005   .005                    .005
        .886177 .886177
$ Pset: "pbeam.13" will be imported as: "pbeam.13"
CBEAM    7276    13      408     411     0.      0.     .001
CBEAM    7277    13      411     412     0.      0.     .001
CBEAM    7278    13      412     419     0.      0.     .001
CBEAM    7279    13      419     420     0.      0.     .001
CBEAM    7280    13      420     1048    0.      0.     .001
CBEAM    7281    13      1048    1051    0.      0.     .001
CBEAM    7282    13      1051    1052    0.      0.     .001
CBEAM    7283    13      1052    1053    0.      0.     .001
CBEAM    7284    13      1053    1054    0.      0.     .001
CBEAM    7285    13      1054    1055    0.      0.     .001
CBEAM    7286    13      1055    1056    0.      0.     .001
CBEAM    7287    13      1056    1057    0.      0.     .001
CBEAM    7288    13      1057    1058    0.      0.     .001
CBEAM    7289    13      1058    1059    0.      0.     .001
CBEAM    7290    13      1059    1060    0.      0.     .001
CBEAM    7291    13      1060    1165    0.      0.     .001
CBEAM    7292    13      1165    1202    0.      0.     .001
CBEAM    7293    13      1202    1203    0.      0.     .001
CBEAM    7294    13      1203    1204    0.      0.     .001
CBEAM    7295    13      1204    1205    0.      0.     .001
$ ... 34 like lines cut
$ Elements and Element Properties for region : pbeam.15
PBEAM    15      1      3.25-5  1.144-106.771-11        1.44-10
*       -.00325         .0025           -.00325         -.0025
*       .00325          -.0025          .00325          .0025
         YES    1.      3.25-5  1.144-106.771-11        1.44-10
*       -.00325         .0025           -.00325         -.0025
*       .00325          -.0025          .00325          .0025
        .850019 .850302
                                        .00325          .00325
$ Pset: "pbeam.15" will be imported as: "pbeam.15"
CBEAM    298     15      4036    4048    0.      0.     .001
CBEAM    301     15      4048    4049    0.      0.     .001
CBEAM    375     15      244     243     0.      0.     .001
CBEAM    378     15      243     242     0.      0.     .001
CBEAM    875     15      202     203     0.      0.     .001
CBEAM    878     15      203     204     0.      0.     .001
CBEAM    1375    15      784     785     0.      0.     .001
CBEAM    1378    15      785     786     0.      0.     .001
CBEAM    1875    15      1366    1367    0.      0.     .001
CBEAM    1878    15      1367    1368    0.      0.     .001
CBEAM    2375    15      1948    1949    0.      0.     .001
CBEAM    2378    15      1949    1950    0.      0.     .001
CBEAM    2875    15      2530    2531    0.      0.     .001
CBEAM    2878    15      2531    2532    0.      0.     .001
CBEAM    3375    15      3112    3113    0.      0.     .001
CBEAM    3378    15      3113    3114    0.      0.     .001
CBEAM    3875    15      3694    3695    0.      0.     .001
CBEAM    3878    15      3695    3696    0.      0.     .001
CBEAM    4375    15      4276    4277    0.      0.     .001
CBEAM    4378    15      4277    4278    0.      0.     .001
$ ... 14 like lines cut
$ Elements and Element Properties for region : pbeam.16
PBEAM    16      1      3.8-5   1.829-107.917-11        1.878-10
        -.0038  .0025   -.0038  -.0025  .0038   -.0025  .0038   .0025
         YES    1.      3.8-5   1.829-107.917-11        1.878-10
        -.0038  .0025   -.0038  -.0025  .0038   -.0025  .0038   .0025
        .849987 .850399
                                        .0038           .0038
$ Pset: "pbeam.16" will be imported as: "pbeam.16"
CBEAM    302     16      4049    4061    0.      0.     .001
CBEAM    303     16      4061    4062    0.      0.     .001
CBEAM    379     16      242     241     0.      0.     .001
CBEAM    380     16      241     240     0.      0.     .001
CBEAM    879     16      204     205     0.      0.     .001
CBEAM    880     16      205     206     0.      0.     .001
CBEAM    1379    16      786     787     0.      0.     .001
CBEAM    1380    16      787     788     0.      0.     .001
CBEAM    1879    16      1368    1369    0.      0.     .001
CBEAM    1880    16      1369    1370    0.      0.     .001
CBEAM    2379    16      1950    1951    0.      0.     .001
CBEAM    2380    16      1951    1952    0.      0.     .001
CBEAM    2879    16      2532    2533    0.      0.     .001
CBEAM    2880    16      2533    2534    0.      0.     .001
CBEAM    3379    16      3114    3115    0.      0.     .001
CBEAM    3380    16      3115    3116    0.      0.     .001
CBEAM    3879    16      3696    3697    0.      0.     .001
CBEAM    3880    16      3697    3698    0.      0.     .001
CBEAM    4379    16      4278    4279    0.      0.     .001
CBEAM    4380    16      4279    4280    0.      0.     .001
$ ... 14 like lines cut
$ Elements and Element Properties for region : pbeam.17
PBEAM    17      1      2.5-5   5.208-115.208-11        8.795-11
        -.0025  .0025   -.0025  -.0025  .0025   -.0025  .0025   .0025
         YES    1.      2.5-5   5.208-115.208-11        8.795-11
        -.0025  .0025   -.0025  -.0025  .0025   -.0025  .0025   .0025
        .850116 .850116
                                        .0025           .0025
$ Pset: "pbeam.17" will be imported as: "pbeam.17"
CBEAM    310     17      4062    4074    0.      0.     .001
CBEAM    311     17      4074    4075    0.      0.     .001
CBEAM    312     17      4075    4112    0.      0.     .001
CBEAM    313     17      4112    4113    0.      0.     .001
CBEAM    314     17      4113    4114    0.      0.     .001
CBEAM    315     17      4114    4115    0.      0.     .001
CBEAM    387     17      240     239     0.      0.     .001
CBEAM    388     17      239     238     0.      0.     .001
CBEAM    389     17      238     237     0.      0.     .001
CBEAM    390     17      237     236     0.      0.     .001
CBEAM    391     17      236     235     0.      0.     .001
CBEAM    392     17      235     234     0.      0.     .001
CBEAM    887     17      206     207     0.      0.     .001
CBEAM    888     17      207     208     0.      0.     .001
CBEAM    889     17      208     209     0.      0.     .001
CBEAM    890     17      209     210     0.      0.     .001
CBEAM    891     17      210     211     0.      0.     .001
CBEAM    892     17      211     212     0.      0.     .001
CBEAM    1387    17      788     789     0.      0.     .001
CBEAM    1388    17      789     790     0.      0.     .001
$ ... 82 like lines cut
$ Elements and Element Properties for region : pbeam.18
PBEAM    18      1      2.-5    2.667-114.167-11        5.501-11
        -.002   .0025   -.002   -.0025  .002    -.0025  .002    .0025
         YES    1.      2.-5    2.667-114.167-11        5.501-11
        -.002   .0025   -.002   -.0025  .002    -.0025  .002    .0025
        .850252 .850044
                                        .002            .002
$ Pset: "pbeam.18" will be imported as: "pbeam.18"
CBEAM    318     18      4115    4116    0.      0.     .001
CBEAM    319     18      4116    4117    0.      0.     .001
CBEAM    395     18      234     233     0.      0.     .001
CBEAM    396     18      233     232     0.      0.     .001
CBEAM    895     18      212     213     0.      0.     .001
CBEAM    896     18      213     214     0.      0.     .001
CBEAM    1395    18      794     795     0.      0.     .001
CBEAM    1396    18      795     796     0.      0.     .001
CBEAM    1895    18      1376    1377    0.      0.     .001
CBEAM    1896    18      1377    1378    0.      0.     .001
CBEAM    2395    18      1958    1959    0.      0.     .001
CBEAM    2396    18      1959    1960    0.      0.     .001
CBEAM    2895    18      2540    2541    0.      0.     .001
CBEAM    2896    18      2541    2542    0.      0.     .001
CBEAM    3395    18      3122    3123    0.      0.     .001
CBEAM    3396    18      3123    3124    0.      0.     .001
CBEAM    3895    18      3704    3705    0.      0.     .001
CBEAM    3896    18      3705    3706    0.      0.     .001
CBEAM    4395    18      4286    4287    0.      0.     .001
CBEAM    4396    18      4287    4288    0.      0.     .001
$ ... 14 like lines cut
$ Elements and Element Properties for region : pbeam.19
PBEAM    19      1      1.-5    3.333-122.083-11        9.989-12
        -.001   .0025   -.001   -.0025  .001    -.0025  .001    .0025
         YES    1.      1.-5    3.333-122.083-11        9.989-12
        -.001   .0025   -.001   -.0025  .001    -.0025  .001    .0025
        .851072 .849897
                                        .001            .001
$ Pset: "pbeam.19" will be imported as: "pbeam.19"
CBEAM    321     19      4117    4118    0.      0.     .001
CBEAM    398     19      232     231     0.      0.     .001
CBEAM    898     19      214     215     0.      0.     .001
CBEAM    1398    19      796     797     0.      0.     .001
CBEAM    1898    19      1378    1379    0.      0.     .001
CBEAM    2398    19      1960    1961    0.      0.     .001
CBEAM    2898    19      2542    2543    0.      0.     .001
CBEAM    3398    19      3124    3125    0.      0.     .001
CBEAM    3898    19      3706    3707    0.      0.     .001
CBEAM    4398    19      4288    4289    0.      0.     .001
CBEAM    4898    19      4870    4871    0.      0.     .001
CBEAM    5398    19      5452    5453    0.      0.     .001
CBEAM    5898    19      6634    6633    0.      0.     .001
CBEAM    6398    19      7216    7215    0.      0.     .001
CBEAM    7037    19      634     635     0.      0.     .001
CBEAM    7145    19      988     989     0.      0.     .001
CBEAM    7253    19      1587    1588    0.      0.     .001
$ Elements and Element Properties for region : pbeam.100014
PBEAM    100014  100004 3.1416-67.854-137.854-13        1.569-12
        -.001                   -.001   .001                    .001
         YES    1.      3.1416-67.854-137.854-13        1.569-12
        -.001                   -.001   .001                    .001
        .886179 .886182
$ Pset: "pbeam.100014" will be imported as: "pbeam.100014"
CBEAM    100001  100014  100060  100062  0.      0.     .001
CBEAM    100002  100014  101628  101030  0.      0.     .001
CBEAM    100003  100014  100062  100068  0.      0.     .001
CBEAM    100004  100014  101030  100639  0.      0.     .001
CBEAM    100005  100014  100068  100074  0.      0.     .001
CBEAM    100006  100014  100639  101334  0.      0.     .001
CBEAM    100007  100014  100074  100080  0.      0.     .001
CBEAM    100008  100014  101334  101338  0.      0.     .001
CBEAM    100009  100014  100080  100086  0.      0.     .001
CBEAM    100010  100014  101338  101342  0.      0.     .001
CBEAM    100011  100014  100086  100092  0.      0.     .001
CBEAM    100012  100014  101342  101346  0.      0.     .001
CBEAM    100013  100014  100092  100098  0.      0.     .001
CBEAM    100014  100014  101346  101350  0.      0.     .001
CBEAM    100015  100014  100098  100104  0.      0.     .001
CBEAM    100016  100014  101350  101354  0.      0.     .001
CBEAM    100017  100014  100104  100110  0.      0.     .001
CBEAM    100018  100014  101354  101358  0.      0.     .001
CBEAM    100019  100014  100110  100116  0.      0.     .001
CBEAM    100020  100014  101358  101362  0.      0.     .001
$ ... 208 like lines cut
$ Elements and Element Properties for region : pbeam.200005
PBEAM    200005  200001 3.25-5  1.144-106.771-11        1.44-10
*       -.00325         .0025           -.00325         -.0025
*       .00325          -.0025          .00325          .0025
         YES    1.      3.25-5  1.144-106.771-11        1.44-10
*       -.00325         .0025           -.00325         -.0025
*       .00325          -.0025          .00325          .0025
        .850019 .850302
*
*       -.00325                         -.00325
$ Pset: "pbeam.200005" will be imported as: "pbeam.200005"
CBEAM    201039  200005  200270  200269  0.      0.     .001
CBEAM    201091  200005  200478  200407  0.      0.     .001
$ Elements and Element Properties for region : pbeam.200006
PBEAM    200006  200001 3.8-5   1.829-107.917-11        1.878-10
        -.0038  .0025   -.0038  -.0025  .0038   -.0025  .0038   .0025
         YES    1.      3.8-5   1.829-107.917-11        1.878-10
        -.0038  .0025   -.0038  -.0025  .0038   -.0025  .0038   .0025
        .849987 .8504
                                        -.0038          -.0038
$ Pset: "pbeam.200006" will be imported as: "pbeam.200006"
CBEAM    201041  200006  200269  200268  0.      0.     .001
CBEAM    201042  200006  200268  200264  0.      0.     .001
CBEAM    201093  200006  200407  200384  0.      0.     .001
CBEAM    201094  200006  200384  200383  0.      0.     .001
$ Elements and Element Properties for region : pbeam.200007
PBEAM    200007  200001 2.5-5   5.208-115.208-11        8.795-11
        -.0025  .0025   -.0025  -.0025  .0025   -.0025  .0025   .0025
         YES    1.      2.5-5   5.208-115.208-11        8.795-11
        -.0025  .0025   -.0025  -.0025  .0025   -.0025  .0025   .0025
        .850116 .850116
                                        -.0025          -.0025
$ Pset: "pbeam.200007" will be imported as: "pbeam.200007"
CBEAM    201046  200007  200264  200263  0.      0.     .001
CBEAM    201047  200007  200263  200262  0.      0.     .001
CBEAM    201048  200007  200262  200258  0.      0.     .001
CBEAM    201049  200007  200258  200257  0.      0.     .001
CBEAM    201050  200007  200257  200256  0.      0.     .001
CBEAM    201051  200007  200256  200252  0.      0.     .001
CBEAM    201098  200007  200383  200382  0.      0.     .001
CBEAM    201099  200007  200382  200378  0.      0.     .001
CBEAM    201100  200007  200378  200377  0.      0.     .001
CBEAM    201101  200007  200377  200376  0.      0.     .001
CBEAM    201102  200007  200376  200372  0.      0.     .001
CBEAM    201103  200007  200372  200371  0.      0.     .001
$ Elements and Element Properties for region : pbeam.200008
PBEAM    200008  200001 2.-5    2.667-114.167-11        5.501-11
        -.002   .0025   -.002   -.0025  .002    -.0025  .002    .0025
         YES    1.      2.-5    2.667-114.167-11        5.501-11
        -.002   .0025   -.002   -.0025  .002    -.0025  .002    .0025
        .85025  .850045
                                        -.002           -.002
$ Pset: "pbeam.200008" will be imported as: "pbeam.200008"
CBEAM    201058  200008  200252  200251  0.      0.     .001
CBEAM    201059  200008  200251  200250  0.      0.     .001
CBEAM    201110  200008  200371  200370  0.      0.     .001
CBEAM    201111  200008  200370  200366  0.      0.     .001
$ Elements and Element Properties for region : pbeam.200009
PBEAM    200009  200001 1.-5    3.333-122.083-11        9.989-12
        -.001   .0025   -.001   -.0025  .001    -.0025  .001    .0025
         YES    1.      1.-5    3.333-122.083-11        9.989-12
        -.001   .0025   -.001   -.0025  .001    -.0025  .001    .0025
        .851072 .849897
                                        -.001           -.001
$ Pset: "pbeam.200009" will be imported as: "pbeam.200009"
CBEAM    201062  200009  200250  200225  0.      0.     .001
CBEAM    201114  200009  200366  200365  0.      0.     .001
$ Elements and Element Properties for region : pbeam.200015
PBEAM    200015  200001 3.25-5  1.144-106.771-11        1.44-10
*       -.00325         .0025           -.00325         -.0025
*       .00325          -.0025          .00325          .0025
         YES    1.      3.25-5  1.144-106.771-11        1.44-10
*       -.00325         .0025           -.00325         -.0025
*       .00325          -.0025          .00325          .0025
        .850019 .850302
                                        .00325          .00325
$ Pset: "pbeam.200015" will be imported as: "pbeam.200015"
CBEAM    201040  200015  200287  200288  0.      0.     .001
CBEAM    201043  200015  200288  200292  0.      0.     .001
CBEAM    201092  200015  200652  200653  0.      0.     .001
CBEAM    201095  200015  200653  200654  0.      0.     .001
$ Elements and Element Properties for region : pbeam.200016
PBEAM    200016  200001 3.8-5   1.829-107.917-11        1.878-10
        -.0038  .0025   -.0038  -.0025  .0038   -.0025  .0038   .0025
         YES    1.      3.8-5   1.829-107.917-11        1.878-10
        -.0038  .0025   -.0038  -.0025  .0038   -.0025  .0038   .0025
        .849987 .8504
                                        .0038           .0038
$ Pset: "pbeam.200016" will be imported as: "pbeam.200016"
CBEAM    201044  200016  200292  200293  0.      0.     .001
CBEAM    201045  200016  200293  200294  0.      0.     .001
CBEAM    201096  200016  200654  200658  0.      0.     .001
CBEAM    201097  200016  200658  200659  0.      0.     .001
$ Elements and Element Properties for region : pbeam.200017
PBEAM    200017  200001 2.5-5   5.208-115.208-11        8.795-11
        -.0025  .0025   -.0025  -.0025  .0025   -.0025  .0025   .0025
         YES    1.      2.5-5   5.208-115.208-11        8.795-11
        -.0025  .0025   -.0025  -.0025  .0025   -.0025  .0025   .0025
        .850116 .850116
                                        .0025           .0025
$ Pset: "pbeam.200017" will be imported as: "pbeam.200017"
CBEAM    201052  200017  200294  200298  0.      0.     .001
CBEAM    201053  200017  200298  200299  0.      0.     .001
CBEAM    201054  200017  200299  200300  0.      0.     .001
CBEAM    201055  200017  200300  200304  0.      0.     .001
CBEAM    201056  200017  200304  200305  0.      0.     .001
CBEAM    201057  200017  200305  200306  0.      0.     .001
CBEAM    201104  200017  200659  200660  0.      0.     .001
CBEAM    201105  200017  200660  200664  0.      0.     .001
CBEAM    201106  200017  200664  200665  0.      0.     .001
CBEAM    201107  200017  200665  200666  0.      0.     .001
CBEAM    201108  200017  200666  200670  0.      0.     .001
CBEAM    201109  200017  200670  200671  0.      0.     .001
$ Elements and Element Properties for region : pbeam.200018
PBEAM    200018  200001 2.-5    2.667-114.167-11        5.501-11
        -.002   .0025   -.002   -.0025  .002    -.0025  .002    .0025
         YES    1.      2.-5    2.667-114.167-11        5.501-11
        -.002   .0025   -.002   -.0025  .002    -.0025  .002    .0025
        .85025  .850045
                                        .002            .002
$ Pset: "pbeam.200018" will be imported as: "pbeam.200018"
CBEAM    201060  200018  200306  200310  0.      0.     .001
CBEAM    201061  200018  200310  200311  0.      0.     .001
CBEAM    201112  200018  200671  200672  0.      0.     .001
CBEAM    201113  200018  200672  200676  0.      0.     .001
$ Elements and Element Properties for region : pbeam.200019
PBEAM    200019  200001 1.-5    3.333-122.083-11        9.989-12
        -.001   .0025   -.001   -.0025  .001    -.0025  .001    .0025
         YES    1.      1.-5    3.333-122.083-11        9.989-12
        -.001   .0025   -.001   -.0025  .001    -.0025  .001    .0025
        .851072 .849897
                                        .001            .001
$ Pset: "pbeam.200019" will be imported as: "pbeam.200019"
CBEAM    201063  200019  200311  200312  0.      0.     .001
CBEAM    201115  200019  200676  200677  0.      0.     .001
$ Elements and Element Properties for region : pshell.4
PSHELL   4       1      .005     1               1
$ Pset: "pshell.4" will be imported as: "pshell.4"
CQUAD4   277     4       4035    3954    3955    4128    0.      0.
CQUAD4   278     4       3954    4036    4129    3956    0.      0.
CQUAD4   279     4       4128    3955    4131    4130    0.      0.
CQUAD4   280     4       3955    3956    4132    4131    0.      0.
CQUAD4   281     4       3956    4129    4133    4132    0.      0.
CQUAD4   282     4       4130    4131    3997    4009    0.      0.
CQUAD4   283     4       4131    4132    3996    3997    0.      0.
CQUAD4   284     4       4132    4133    3984    3996    0.      0.
CQUAD4   285     4       4023    4128    4130    4010    0.      0.
CTRIA3   286     4       4022    4023    4010    0.      0.
CTRIA3   287     4       4023    4035    4128    0.      0.
CTRIA3   288     4       4010    4130    4009    0.      0.
CTRIA3   328     4       3954    3956    3955    0.      0.
CQUAD4   353     4       246     222     223     410     0.      0.
CQUAD4   355     4       222     244     413     224     0.      0.
CQUAD4   356     4       410     223     415     414     0.      0.
CQUAD4   357     4       223     224     416     415     0.      0.
CQUAD4   358     4       224     413     417     416     0.      0.
CQUAD4   359     4       414     415     41      40      0.      0.
CQUAD4   360     4       415     416     42      41      0.      0.
CQUAD4   361     4       416     417     43      42      0.      0.
CQUAD4   362     4       247     410     414     39      0.      0.
CTRIA3   363     4       38      247     39      0.      0.
CTRIA3   364     4       247     246     410     0.      0.
CTRIA3   365     4       39      414     40      0.      0.
CQUAD4   853     4       200     201     226     992     0.      0.
CQUAD4   855     4       201     202     995     227     0.      0.
CQUAD4   856     4       992     226     997     996     0.      0.
CQUAD4   857     4       226     227     998     997     0.      0.
CQUAD4   858     4       227     995     999     998     0.      0.
CQUAD4   859     4       996     997     27      28      0.      0.
CQUAD4   860     4       997     998     26      27      0.      0.
CQUAD4   861     4       998     999     25      26      0.      0.
CQUAD4   862     4       199     992     996     29      0.      0.
CTRIA3   863     4       30      199     29      0.      0.
CTRIA3   864     4       199     200     992     0.      0.
CTRIA3   865     4       29      996     28      0.      0.
CQUAD4   1353    4       782     388     389     1574    0.      0.
CQUAD4   1355    4       388     784     1577    390     0.      0.
CQUAD4   1356    4       1574    389     1579    1578    0.      0.
CQUAD4   1357    4       389     390     1580    1579    0.      0.
CQUAD4   1358    4       390     1577    1581    1580    0.      0.
CQUAD4   1359    4       1578    1579    609     610     0.      0.
CQUAD4   1360    4       1579    1580    608     609     0.      0.
CQUAD4   1361    4       1580    1581    607     608     0.      0.
CQUAD4   1362    4       781     1574    1578    611     0.      0.
CTRIA3   1363    4       612     781     611     0.      0.
CTRIA3   1364    4       781     782     1574    0.      0.
CTRIA3   1365    4       611     1578    610     0.      0.
CQUAD4   1853    4       1364    391     392     2156    0.      0.
CQUAD4   1855    4       391     1366    2159    393     0.      0.
CQUAD4   1856    4       2156    392     2161    2160    0.      0.
CQUAD4   1857    4       392     393     2162    2161    0.      0.
CQUAD4   1858    4       393     2159    2163    2162    0.      0.
CQUAD4   1859    4       2160    2161    1191    1192    0.      0.
CQUAD4   1860    4       2161    2162    1190    1191    0.      0.
CQUAD4   1861    4       2162    2163    1189    1190    0.      0.
CQUAD4   1862    4       1363    2156    2160    1193    0.      0.
CTRIA3   1863    4       1194    1363    1193    0.      0.
CTRIA3   1864    4       1363    1364    2156    0.      0.
CTRIA3   1865    4       1193    2160    1192    0.      0.
CQUAD4   2353    4       1946    394     395     2738    0.      0.
CQUAD4   2355    4       394     1948    2741    396     0.      0.
CQUAD4   2356    4       2738    395     2743    2742    0.      0.
CQUAD4   2357    4       395     396     2744    2743    0.      0.
CQUAD4   2358    4       396     2741    2745    2744    0.      0.
CQUAD4   2359    4       2742    2743    1773    1774    0.      0.
CQUAD4   2360    4       2743    2744    1772    1773    0.      0.
CQUAD4   2361    4       2744    2745    1771    1772    0.      0.
CQUAD4   2362    4       1945    2738    2742    1775    0.      0.
CTRIA3   2363    4       1776    1945    1775    0.      0.
CTRIA3   2364    4       1945    1946    2738    0.      0.
CTRIA3   2365    4       1775    2742    1774    0.      0.
CQUAD4   2853    4       2528    397     398     3320    0.      0.
CQUAD4   2855    4       397     2530    3323    399     0.      0.
CQUAD4   2856    4       3320    398     3325    3324    0.      0.
CQUAD4   2857    4       398     399     3326    3325    0.      0.
CQUAD4   2858    4       399     3323    3327    3326    0.      0.
CQUAD4   2859    4       3324    3325    2355    2356    0.      0.
CQUAD4   2860    4       3325    3326    2354    2355    0.      0.
CQUAD4   2861    4       3326    3327    2353    2354    0.      0.
CQUAD4   2862    4       2527    3320    3324    2357    0.      0.
CTRIA3   2863    4       2358    2527    2357    0.      0.
CTRIA3   2864    4       2527    2528    3320    0.      0.
CTRIA3   2865    4       2357    3324    2356    0.      0.
CQUAD4   3353    4       3110    400     401     3902    0.      0.
CQUAD4   3355    4       400     3112    3905    402     0.      0.
CQUAD4   3356    4       3902    401     3907    3906    0.      0.
CQUAD4   3357    4       401     402     3908    3907    0.      0.
CQUAD4   3358    4       402     3905    3909    3908    0.      0.
CQUAD4   3359    4       3906    3907    2937    2938    0.      0.
CQUAD4   3360    4       3907    3908    2936    2937    0.      0.
CQUAD4   3361    4       3908    3909    2935    2936    0.      0.
CQUAD4   3362    4       3109    3902    3906    2939    0.      0.
CTRIA3   3363    4       2940    3109    2939    0.      0.
CTRIA3   3364    4       3109    3110    3902    0.      0.
CTRIA3   3365    4       2939    3906    2938    0.      0.
CQUAD4   3853    4       3692    403     404     4484    0.      0.
CQUAD4   3855    4       403     3694    4487    405     0.      0.
CQUAD4   3856    4       4484    404     4489    4488    0.      0.
CQUAD4   3857    4       404     405     4490    4489    0.      0.
CQUAD4   3858    4       405     4487    4491    4490    0.      0.
CQUAD4   3859    4       4488    4489    3519    3520    0.      0.
CQUAD4   3860    4       4489    4490    3518    3519    0.      0.
CQUAD4   3861    4       4490    4491    3517    3518    0.      0.
CQUAD4   3862    4       3691    4484    4488    3521    0.      0.
CTRIA3   3863    4       3522    3691    3521    0.      0.
CTRIA3   3864    4       3691    3692    4484    0.      0.
CTRIA3   3865    4       3521    4488    3520    0.      0.
CQUAD4   4353    4       4274    406     409     5066    0.      0.
CQUAD4   4355    4       406     4276    5069    418     0.      0.
CQUAD4   4356    4       5066    409     5071    5070    0.      0.
CQUAD4   4357    4       409     418     5072    5071    0.      0.
CQUAD4   4358    4       418     5069    5073    5072    0.      0.
CQUAD4   4359    4       5070    5071    4101    4102    0.      0.
CQUAD4   4360    4       5071    5072    4100    4101    0.      0.
CQUAD4   4361    4       5072    5073    4099    4100    0.      0.
CQUAD4   4362    4       4273    5066    5070    4103    0.      0.
CTRIA3   4363    4       4104    4273    4103    0.      0.
CTRIA3   4364    4       4273    4274    5066    0.      0.
CTRIA3   4365    4       4103    5070    4102    0.      0.
CQUAD4   4853    4       4856    421     422     5648    0.      0.
CQUAD4   4855    4       421     4858    5651    423     0.      0.
CQUAD4   4856    4       5648    422     5653    5652    0.      0.
CQUAD4   4857    4       422     423     5654    5653    0.      0.
CQUAD4   4858    4       423     5651    5655    5654    0.      0.
CQUAD4   4859    4       5652    5653    4683    4684    0.      0.
CQUAD4   4860    4       5653    5654    4682    4683    0.      0.
CQUAD4   4861    4       5654    5655    4681    4682    0.      0.
CQUAD4   4862    4       4855    5648    5652    4685    0.      0.
CTRIA3   4863    4       4686    4855    4685    0.      0.
CTRIA3   4864    4       4855    4856    5648    0.      0.
CTRIA3   4865    4       4685    5652    4684    0.      0.
CQUAD4   5353    4       5438    424     428     6230    0.      0.
CQUAD4   5355    4       424     5440    6233    429     0.      0.
CQUAD4   5356    4       6230    428     6235    6234    0.      0.
CQUAD4   5357    4       428     429     6236    6235    0.      0.
CQUAD4   5358    4       429     6233    6237    6236    0.      0.
CQUAD4   5359    4       6234    6235    5265    5266    0.      0.
CQUAD4   5360    4       6235    6236    5264    5265    0.      0.
CQUAD4   5361    4       6236    6237    5263    5264    0.      0.
CQUAD4   5362    4       5437    6230    6234    5267    0.      0.
CTRIA3   5363    4       5268    5437    5267    0.      0.
CTRIA3   5364    4       5437    5438    6230    0.      0.
CTRIA3   5365    4       5267    6234    5266    0.      0.
CQUAD4   5853    4       6648    219     220     6812    0.      0.
CQUAD4   5855    4       219     6646    6815    221     0.      0.
CQUAD4   5856    4       6812    220     6817    6816    0.      0.
CQUAD4   5857    4       220     221     6818    6817    0.      0.
CQUAD4   5858    4       221     6815    6819    6818    0.      0.
CQUAD4   5859    4       6816    6817    6443    6442    0.      0.
CQUAD4   5860    4       6817    6818    6444    6443    0.      0.
CQUAD4   5861    4       6818    6819    6445    6444    0.      0.
CQUAD4   5862    4       6649    6812    6816    6441    0.      0.
CTRIA3   5863    4       6440    6649    6441    0.      0.
CTRIA3   5864    4       6649    6648    6812    0.      0.
CTRIA3   5865    4       6441    6816    6442    0.      0.
CQUAD4   6353    4       7230    7229    7395    7394    0.      0.
CQUAD4   6355    4       7229    7228    7397    7396    0.      0.
CQUAD4   6356    4       7394    7395    7399    7398    0.      0.
CQUAD4   6357    4       7395    7396    7400    7399    0.      0.
CQUAD4   6358    4       7396    7397    7401    7400    0.      0.
CQUAD4   6359    4       7398    7399    7025    7024    0.      0.
CQUAD4   6360    4       7399    7400    7026    7025    0.      0.
CQUAD4   6361    4       7400    7401    7027    7026    0.      0.
CQUAD4   6362    4       7231    7394    7398    7023    0.      0.
CTRIA3   6363    4       7022    7231    7023    0.      0.
CTRIA3   6364    4       7231    7230    7394    0.      0.
CTRIA3   6365    4       7023    7398    7024    0.      0.
CQUAD4   6884    4       621     430     431     994     0.      0.
CQUAD4   6885    4       430     622     1000    432     0.      0.
CQUAD4   6886    4       994     431     1002    1001    0.      0.
CQUAD4   6887    4       431     432     1003    1002    0.      0.
CQUAD4   6888    4       432     1000    1004    1003    0.      0.
CQUAD4   6889    4       1001    1002    463     464     0.      0.
CQUAD4   6890    4       1002    1003    462     463     0.      0.
CQUAD4   6891    4       1003    1004    461     462     0.      0.
CQUAD4   6892    4       620     994     1001    465     0.      0.
CTRIA3   6893    4       583     620     465     0.      0.
CTRIA3   6894    4       620     621     994     0.      0.
CTRIA3   6895    4       465     1001    464     0.      0.
CTRIA3   7001    4       7229    7396    7395    0.      0.
CTRIA3   7002    4       219     221     220     0.      0.
CTRIA3   7003    4       222     224     223     0.      0.
CTRIA3   7004    4       201     227     226     0.      0.
CTRIA3   7005    4       388     390     389     0.      0.
CTRIA3   7006    4       391     393     392     0.      0.
CTRIA3   7007    4       394     396     395     0.      0.
CTRIA3   7008    4       397     399     398     0.      0.
CTRIA3   7009    4       400     402     401     0.      0.
CTRIA3   7010    4       403     405     404     0.      0.
CTRIA3   7011    4       406     418     409     0.      0.
CTRIA3   7012    4       421     423     422     0.      0.
CTRIA3   7013    4       424     429     428     0.      0.
CTRIA3   7056    4       430     432     431     0.      0.
CQUAD4   7101    4       974     975     1049    1595    0.      0.
CQUAD4   7102    4       975     976     1596    1050    0.      0.
CQUAD4   7103    4       1595    1049    1598    1597    0.      0.
CQUAD4   7104    4       1049    1050    1599    1598    0.      0.
CQUAD4   7105    4       1050    1596    1600    1599    0.      0.
CQUAD4   7106    4       1597    1598    970     971     0.      0.
CQUAD4   7107    4       1598    1599    829     970     0.      0.
CQUAD4   7108    4       1599    1600    828     829     0.      0.
CQUAD4   7109    4       973     1595    1597    972     0.      0.
CTRIA3   7110    4       812     973     972     0.      0.
CTRIA3   7111    4       973     974     1595    0.      0.
CTRIA3   7112    4       972     1597    971     0.      0.
CTRIA3   7164    4       975     1050    1049    0.      0.
CQUAD4   7209    4       1567    1568    1642    2195    0.      0.
CQUAD4   7210    4       1568    1569    2201    1747    0.      0.
CQUAD4   7211    4       2195    1642    2203    2202    0.      0.
CQUAD4   7212    4       1642    1747    2204    2203    0.      0.
CQUAD4   7213    4       1747    2201    2205    2204    0.      0.
CQUAD4   7214    4       2202    2203    1563    1564    0.      0.
CQUAD4   7215    4       2203    2204    1562    1563    0.      0.
CQUAD4   7216    4       2204    2205    1561    1562    0.      0.
CQUAD4   7217    4       1566    2195    2202    1565    0.      0.
CTRIA3   7218    4       1405    1566    1565    0.      0.
CTRIA3   7219    4       1566    1567    2195    0.      0.
CTRIA3   7220    4       1565    2202    1564    0.      0.
CTRIA3   7272    4       1568    1747    1642    0.      0.
$ Elements and Element Properties for region : pshell.10
PSHELL   10      1      .005     1               1
$ Pset: "pshell.10" will be imported as: "pshell.10"
CQUAD4   289     10      4118    4119    4135    4134    0.      0.
CQUAD4   290     10      4119    4120    4136    4135    0.      0.
CQUAD4   291     10      4134    4135    3960    3961    0.      0.
CQUAD4   292     10      4135    4136    3959    3960    0.      0.
CTRIA3   293     10      4120    4121    4136    0.      0.
CTRIA3   294     10      4136    3958    3959    0.      0.
CTRIA3   295     10      4136    4121    3958    0.      0.
CTRIA3   296     10      4121    3957    3958    0.      0.
CQUAD4   366     10      231     230     426     425     0.      0.
CQUAD4   367     10      230     229     427     426     0.      0.
CQUAD4   368     10      425     426     56      55      0.      0.
CQUAD4   369     10      426     427     57      56      0.      0.
CTRIA3   370     10      229     228     427     0.      0.
CTRIA3   371     10      427     58      57      0.      0.
CTRIA3   372     10      427     228     58      0.      0.
CTRIA3   373     10      228     1       58      0.      0.
CQUAD4   866     10      215     216     1008    1007    0.      0.
CQUAD4   867     10      216     217     1009    1008    0.      0.
CQUAD4   868     10      1007    1008    12      13      0.      0.
CQUAD4   869     10      1008    1009    11      12      0.      0.
CTRIA3   870     10      217     218     1009    0.      0.
CTRIA3   871     10      1009    10      11      0.      0.
CTRIA3   872     10      1009    218     10      0.      0.
CTRIA3   873     10      218     9       10      0.      0.
CQUAD4   1366    10      797     798     1590    1589    0.      0.
CQUAD4   1367    10      798     799     1591    1590    0.      0.
CQUAD4   1368    10      1589    1590    594     595     0.      0.
CQUAD4   1369    10      1590    1591    593     594     0.      0.
CTRIA3   1370    10      799     800     1591    0.      0.
CTRIA3   1371    10      1591    592     593     0.      0.
CTRIA3   1372    10      1591    800     592     0.      0.
CTRIA3   1373    10      800     591     592     0.      0.
CQUAD4   1866    10      1379    1380    2172    2171    0.      0.
CQUAD4   1867    10      1380    1381    2173    2172    0.      0.
CQUAD4   1868    10      2171    2172    1176    1177    0.      0.
CQUAD4   1869    10      2172    2173    1175    1176    0.      0.
CTRIA3   1870    10      1381    1382    2173    0.      0.
CTRIA3   1871    10      2173    1174    1175    0.      0.
CTRIA3   1872    10      2173    1382    1174    0.      0.
CTRIA3   1873    10      1382    1173    1174    0.      0.
CQUAD4   2366    10      1961    1962    2754    2753    0.      0.
CQUAD4   2367    10      1962    1963    2755    2754    0.      0.
CQUAD4   2368    10      2753    2754    1758    1759    0.      0.
CQUAD4   2369    10      2754    2755    1757    1758    0.      0.
CTRIA3   2370    10      1963    1964    2755    0.      0.
CTRIA3   2371    10      2755    1756    1757    0.      0.
CTRIA3   2372    10      2755    1964    1756    0.      0.
CTRIA3   2373    10      1964    1755    1756    0.      0.
CQUAD4   2866    10      2543    2544    3336    3335    0.      0.
CQUAD4   2867    10      2544    2545    3337    3336    0.      0.
CQUAD4   2868    10      3335    3336    2340    2341    0.      0.
CQUAD4   2869    10      3336    3337    2339    2340    0.      0.
CTRIA3   2870    10      2545    2546    3337    0.      0.
CTRIA3   2871    10      3337    2338    2339    0.      0.
CTRIA3   2872    10      3337    2546    2338    0.      0.
CTRIA3   2873    10      2546    2337    2338    0.      0.
CQUAD4   3366    10      3125    3126    3918    3917    0.      0.
CQUAD4   3367    10      3126    3127    3919    3918    0.      0.
CQUAD4   3368    10      3917    3918    2922    2923    0.      0.
CQUAD4   3369    10      3918    3919    2921    2922    0.      0.
CTRIA3   3370    10      3127    3128    3919    0.      0.
CTRIA3   3371    10      3919    2920    2921    0.      0.
CTRIA3   3372    10      3919    3128    2920    0.      0.
CTRIA3   3373    10      3128    2919    2920    0.      0.
CQUAD4   3866    10      3707    3708    4500    4499    0.      0.
CQUAD4   3867    10      3708    3709    4501    4500    0.      0.
CQUAD4   3868    10      4499    4500    3504    3505    0.      0.
CQUAD4   3869    10      4500    4501    3503    3504    0.      0.
CTRIA3   3870    10      3709    3710    4501    0.      0.
CTRIA3   3871    10      4501    3502    3503    0.      0.
CTRIA3   3872    10      4501    3710    3502    0.      0.
CTRIA3   3873    10      3710    3501    3502    0.      0.
CQUAD4   4366    10      4289    4290    5082    5081    0.      0.
CQUAD4   4367    10      4290    4291    5083    5082    0.      0.
CQUAD4   4368    10      5081    5082    4086    4087    0.      0.
CQUAD4   4369    10      5082    5083    4085    4086    0.      0.
CTRIA3   4370    10      4291    4292    5083    0.      0.
CTRIA3   4371    10      5083    4084    4085    0.      0.
CTRIA3   4372    10      5083    4292    4084    0.      0.
CTRIA3   4373    10      4292    4083    4084    0.      0.
CQUAD4   4866    10      4871    4872    5664    5663    0.      0.
CQUAD4   4867    10      4872    4873    5665    5664    0.      0.
CQUAD4   4868    10      5663    5664    4668    4669    0.      0.
CQUAD4   4869    10      5664    5665    4667    4668    0.      0.
CTRIA3   4870    10      4873    4874    5665    0.      0.
CTRIA3   4871    10      5665    4666    4667    0.      0.
CTRIA3   4872    10      5665    4874    4666    0.      0.
CTRIA3   4873    10      4874    4665    4666    0.      0.
CQUAD4   5366    10      5453    5454    6246    6245    0.      0.
CQUAD4   5367    10      5454    5455    6247    6246    0.      0.
CQUAD4   5368    10      6245    6246    5250    5251    0.      0.
CQUAD4   5369    10      6246    6247    5249    5250    0.      0.
CTRIA3   5370    10      5455    5456    6247    0.      0.
CTRIA3   5371    10      6247    5248    5249    0.      0.
CTRIA3   5372    10      6247    5456    5248    0.      0.
CTRIA3   5373    10      5456    5247    5248    0.      0.
CQUAD4   5866    10      6633    6632    6828    6827    0.      0.
CQUAD4   5867    10      6632    6631    6829    6828    0.      0.
CQUAD4   5868    10      6827    6828    6458    6457    0.      0.
CQUAD4   5869    10      6828    6829    6459    6458    0.      0.
CTRIA3   5870    10      6631    6630    6829    0.      0.
CTRIA3   5871    10      6829    6460    6459    0.      0.
CTRIA3   5872    10      6829    6630    6460    0.      0.
CTRIA3   5873    10      6630    6403    6460    0.      0.
CQUAD4   6366    10      7215    7214    7410    7409    0.      0.
CQUAD4   6367    10      7214    7213    7411    7410    0.      0.
CQUAD4   6368    10      7409    7410    7040    7039    0.      0.
CQUAD4   6369    10      7410    7411    7041    7040    0.      0.
CTRIA3   6370    10      7213    7212    7411    0.      0.
CTRIA3   6371    10      7411    7042    7041    0.      0.
CTRIA3   6372    10      7411    7212    7042    0.      0.
CTRIA3   6373    10      7212    6985    7042    0.      0.
CQUAD4   6896    10      635     636     1006    1005    0.      0.
CQUAD4   6897    10      636     637     1010    1006    0.      0.
CQUAD4   6898    10      1005    1006    436     437     0.      0.
CQUAD4   6995    10      1006    1010    435     436     0.      0.
CTRIA3   6996    10      637     638     1010    0.      0.
CTRIA3   6997    10      1010    434     435     0.      0.
CTRIA3   6998    10      1010    638     434     0.      0.
CTRIA3   6999    10      638     433     434     0.      0.
CQUAD4   7113    10      989     990     1602    1601    0.      0.
CQUAD4   7114    10      990     991     1605    1602    0.      0.
CQUAD4   7115    10      1601    1602    815     816     0.      0.
CQUAD4   7116    10      1602    1605    814     815     0.      0.
CTRIA3   7117    10      991     993     1605    0.      0.
CTRIA3   7118    10      1605    813     814     0.      0.
CTRIA3   7119    10      1605    993     813     0.      0.
CTRIA3   7120    10      993     811     813     0.      0.
CQUAD4   7221    10      1588    1592    2207    2206    0.      0.
CQUAD4   7222    10      1592    1593    2208    2207    0.      0.
CQUAD4   7223    10      2206    2207    1408    1409    0.      0.
CQUAD4   7224    10      2207    2208    1407    1408    0.      0.
CTRIA3   7225    10      1593    1594    2208    0.      0.
CTRIA3   7226    10      2208    1406    1407    0.      0.
CTRIA3   7227    10      2208    1594    1406    0.      0.
CTRIA3   7228    10      1594    1404    1406    0.      0.
$ Elements and Element Properties for region : pshell.12
PSHELL   12      1      .002     1               1
$ Pset: "pshell.12" will be imported as: "pshell.12"
CQUAD4   231     12      59      200358  200359  65      0.      0.
CQUAD4   232     12      200358  200192  200193  200359  0.      0.
CQUAD4   233     12      65      200359  200360  68      0.      0.
CQUAD4   234     12      200359  200193  200197  200360  0.      0.
CQUAD4   235     12      68      200360  200364  71      0.      0.
CQUAD4   236     12      200360  200197  200198  200364  0.      0.
CQUAD4   237     12      71      200364  200365  74      0.      0.
CQUAD4   238     12      200364  200198  200225  200365  0.      0.
CQUAD4   239     12      74      200365  200366  77      0.      0.
CQUAD4   240     12      200365  200225  200250  200366  0.      0.
CQUAD4   241     12      77      200366  200370  80      0.      0.
CQUAD4   242     12      200366  200250  200251  200370  0.      0.
CQUAD4   243     12      80      200370  200371  83      0.      0.
CQUAD4   244     12      200370  200251  200252  200371  0.      0.
CQUAD4   245     12      83      200371  200372  86      0.      0.
CQUAD4   246     12      200371  200252  200256  200372  0.      0.
CQUAD4   247     12      86      200372  200376  89      0.      0.
CQUAD4   248     12      200372  200256  200257  200376  0.      0.
CQUAD4   249     12      89      200376  200377  92      0.      0.
CQUAD4   250     12      200376  200257  200258  200377  0.      0.
$ ... 64 like lines cut
$ Elements and Element Properties for region : pshell.10011
PSHELL   10011   10002  1.2-5    10002           10002
$ Pset: "pshell.10011" will be imported as: "pshell.10011"
CQUAD4   10001   10011   1       2       10059   58      0.      0.
CQUAD4   10002   10011   2       3       10060   10059   0.      0.
CQUAD4   10003   10011   3       4       10061   10060   0.      0.
CQUAD4   10004   10011   4       5       10062   10061   0.      0.
CQUAD4   10005   10011   5       6       10063   10062   0.      0.
CQUAD4   10006   10011   6       7       10064   10063   0.      0.
CQUAD4   10007   10011   7       8       10065   10064   0.      0.
CQUAD4   10008   10011   8       9       10      10065   0.      0.
CQUAD4   10009   10011   58      10059   10066   57      0.      0.
CQUAD4   10010   10011   10059   10060   10067   10066   0.      0.
CQUAD4   10011   10011   10060   10061   10068   10067   0.      0.
CQUAD4   10012   10011   10061   10062   10069   10068   0.      0.
CQUAD4   10013   10011   10062   10063   10070   10069   0.      0.
CQUAD4   10014   10011   10063   10064   10071   10070   0.      0.
CQUAD4   10015   10011   10064   10065   10072   10071   0.      0.
CQUAD4   10016   10011   10065   10      11      10072   0.      0.
CQUAD4   10017   10011   57      10066   10073   56      0.      0.
CQUAD4   10018   10011   10066   10067   10074   10073   0.      0.
CQUAD4   10019   10011   10067   10068   10075   10074   0.      0.
CQUAD4   10020   10011   10068   10069   10076   10075   0.      0.
$ ... 4726 like lines cut
$ Elements and Element Properties for region : pshell.100003
PSHELL   100003  100003 .00225   100003          100003
$ Pset: "pshell.100003" will be imported as: "pshell.100003"
CQUAD4   100116  100003  102773  100466  100479  102775  0.      0.
CQUAD4   100117  100003  102775  100479  100492  102777  0.      0.
CQUAD4   100118  100003  102777  100492  100505  102779  0.      0.
CQUAD4   100119  100003  102779  100505  100518  102781  0.      0.
CQUAD4   100120  100003  102781  100518  100531  102783  0.      0.
CQUAD4   100121  100003  102783  100531  100544  102785  0.      0.
CQUAD4   100122  100003  102785  100544  100557  102787  0.      0.
CQUAD4   100123  100003  102787  100557  100570  102789  0.      0.
CQUAD4   100124  100003  102789  100570  101061  102795  0.      0.
CQUAD4   100125  100003  102795  101061  101074  102797  0.      0.
CQUAD4   100126  100003  102797  101074  101087  102799  0.      0.
CQUAD4   100127  100003  102799  101087  101100  102801  0.      0.
CQUAD4   100128  100003  102801  101100  101113  102803  0.      0.
CQUAD4   100129  100003  102803  101113  101126  102805  0.      0.
CQUAD4   100130  100003  102805  101126  101139  102911  0.      0.
CQUAD4   100131  100003  102911  101139  101152  102949  0.      0.
CQUAD4   100132  100003  102949  101152  101643  102953  0.      0.
CQUAD4   100133  100003  102953  101643  101656  102955  0.      0.
CQUAD4   100134  100003  102955  101656  101669  102957  0.      0.
CQUAD4   100135  100003  102957  101669  101682  102959  0.      0.
$ ... 420 like lines cut
CTRIA3   100789  100003  108036  108049  200689  0.      0.
CTRIA3   100790  100003  108036  200689  8035    0.      0.
CTRIA3   100791  100003  200689  200324  200323  0.      0.
CTRIA3   100792  100003  200689  200323  200688  0.      0.
CTRIA3   100793  100003  200323  108073  108072  0.      0.
CTRIA3   100794  100003  200323  108072  200322  0.      0.
CTRIA3   100795  100003  108072  108085  102025  0.      0.
CTRIA3   100796  100003  108072  102025  102029  0.      0.
CTRIA3   100805  100003  101305  101299  101306  0.      0.
CTRIA3   100806  100003  101306  101299  101300  0.      0.
CTRIA3   100807  100003  200185  101306  200329  0.      0.
CTRIA3   100808  100003  200329  101306  108082  0.      0.
CTRIA3   100809  100003  200690  200694  200329  0.      0.
CTRIA3   100810  100003  200329  200328  200690  0.      0.
CTRIA3   100811  100003  8042    200690  8041    0.      0.
CTRIA3   100812  100003  8041    200690  108054  0.      0.
CQUAD4   100899  100003  100570  571     101062  101061  0.      0.
CQUAD4   100900  100003  571     572     101063  101062  0.      0.
CQUAD4   100901  100003  572     573     101064  101063  0.      0.
CQUAD4   100902  100003  573     100574  101065  101064  0.      0.
CQUAD4   100903  100003  100574  100575  101066  101065  0.      0.
CQUAD4   100904  100003  100575  100576  101067  101066  0.      0.
CQUAD4   100905  100003  100576  100577  101068  101067  0.      0.
CQUAD4   100906  100003  100577  100578  101069  101068  0.      0.
CQUAD4   100907  100003  100578  100579  101070  101069  0.      0.
CQUAD4   100908  100003  100579  580     101071  101070  0.      0.
CQUAD4   100909  100003  580     581     101072  101071  0.      0.
CQUAD4   100910  100003  581     582     100885  101072  0.      0.
CQUAD4   100911  100003  101061  101062  101075  101074  0.      0.
CQUAD4   100912  100003  101062  101063  101076  101075  0.      0.
CQUAD4   100913  100003  101063  101064  101077  101076  0.      0.
CQUAD4   100914  100003  101064  101065  101078  101077  0.      0.
CQUAD4   100915  100003  101065  101066  101079  101078  0.      0.
CQUAD4   100916  100003  101066  101067  101080  101079  0.      0.
CQUAD4   100917  100003  101067  101068  101081  101080  0.      0.
CQUAD4   100918  100003  101068  101069  101082  101081  0.      0.
$ ... 1257 like lines cut
$ Elements and Element Properties for region : pshell.200004
PSHELL   200004  200001 .005     200001          200001
$ Pset: "pshell.200004" will be imported as: "pshell.200004"
CQUAD4   201019  200004  200286  200186  200187  200330  0.      0.
CQUAD4   201020  200004  200186  200287  200334  200191  0.      0.
CQUAD4   201021  200004  200330  200187  200336  200335  0.      0.
CQUAD4   201022  200004  200187  200191  200340  200336  0.      0.
CQUAD4   201023  200004  200191  200334  200341  200340  0.      0.
CQUAD4   201024  200004  200335  200336  200275  200276  0.      0.
CQUAD4   201025  200004  200336  200340  200274  200275  0.      0.
CQUAD4   201026  200004  200340  200341  200270  200274  0.      0.
CQUAD4   201027  200004  200282  200330  200335  200280  0.      0.
CTRIA3   201028  200004  200281  200282  200280  0.      0.
CTRIA3   201029  200004  200282  200286  200330  0.      0.
CTRIA3   201030  200004  200280  200335  200276  0.      0.
CTRIA3   201070  200004  200186  200191  200187  0.      0.
CQUAD4   201071  200004  200648  200352  200353  200695  0.      0.
CQUAD4   201072  200004  200352  200652  200696  200354  0.      0.
CQUAD4   201073  200004  200695  200353  200701  200700  0.      0.
CQUAD4   201074  200004  200353  200354  200702  200701  0.      0.
CQUAD4   201075  200004  200354  200696  200706  200702  0.      0.
CQUAD4   201076  200004  200700  200701  200543  200641  0.      0.
CQUAD4   201077  200004  200701  200702  200491  200543  0.      0.
CQUAD4   201078  200004  200702  200706  200478  200491  0.      0.
CQUAD4   201079  200004  200647  200695  200700  200642  0.      0.
CTRIA3   201080  200004  200646  200647  200642  0.      0.
CTRIA3   201081  200004  200647  200648  200695  0.      0.
CTRIA3   201082  200004  200642  200700  200641  0.      0.
CTRIA3   201122  200004  200352  200354  200353  0.      0.
$ Elements and Element Properties for region : pshell.200010
PSHELL   200010  200001 .005     200001          200001
$ Pset: "pshell.200010" will be imported as: "pshell.200010"
CQUAD4   201031  200010  200312  200316  200346  200342  0.      0.
CQUAD4   201032  200010  200316  200317  200347  200346  0.      0.
CQUAD4   201033  200010  200342  200346  200198  200225  0.      0.
CQUAD4   201034  200010  200346  200347  200197  200198  0.      0.
CTRIA3   201035  200010  200317  200318  200347  0.      0.
CTRIA3   201036  200010  200347  200193  200197  0.      0.
CTRIA3   201037  200010  200347  200318  200193  0.      0.
CTRIA3   201038  200010  200318  200192  200193  0.      0.
CQUAD4   201083  200010  200677  200678  200708  200707  0.      0.
CQUAD4   201084  200010  200678  200682  200712  200708  0.      0.
CQUAD4   201085  200010  200707  200708  200364  200365  0.      0.
CQUAD4   201086  200010  200708  200712  200360  200364  0.      0.
CTRIA3   201087  200010  200682  200683  200712  0.      0.
CTRIA3   201088  200010  200712  200359  200360  0.      0.
CTRIA3   201089  200010  200712  200683  200359  0.      0.
CTRIA3   201090  200010  200683  200358  200359  0.      0.
$ Elements and Element Properties for region : conm2
CONM2    669     1212    0      .015     0.      0.      0.
         0.      0.      0.      0.      0.      0.
CONM2    200669  1212    0      .0011    0.      0.      0.
         0.      0.      0.      0.      0.      0.
$ Referenced Material Records
$ Material Record : mat1.1
$ Description of Material :
MAT1*    1              1.1+9           3.94548+8       .394
*       930.
$ Material Record : mat1.10002
$ Description of Material :
MAT1*    10002          4.666+8         1.66643+8       .4
*       .03
$ Material Record : mat1.100003
$ Description of Material :
MAT1*    100003         7.1+10          2.66917+10      .33
*       2795.
$ Material Record : mat1.100004
$ Description of Material :
MAT1     100004 1.+6    384615. .3      .001
$ Material Record : mat1.200001
$ Description of Material :
MAT1*    200001         1.1+9           3.94548+8       .394
*       930.
$ Multipoint Constraints of the Entire Model
RBE2     322     4122    123456  3983    4049
RBE2     323     4123    123456  3971    4061
RBE2     324     4124    123456  3970    4062
RBE2     325     4125    123456  3964    4115
RBE2     326     4126    123456  3963    4116
RBE2     327     2574    123456  3962    4117
RBE2     495     467     123456  44      242
RBE2     496     468     123456  45      241
RBE2     497     469     123456  46      240
RBE2     498     476     123456  52      234
RBE2     499     477     123456  53      233
RBE2     500     439     123456  54      232
RBE2     995     571     123456  24      204
RBE2     996     572     123456  23      205
RBE2     997     573     123456  22      206
RBE2     998     580     123456  16      212
RBE2     999     581     123456  15      213
RBE2     1000    582     123456  14      214
RBE2     1495    1153    123456  606     786
RBE2     1496    1154    123456  605     787
$ ... 94 like lines cut
$ Nodes of the Entire Model
GRID     1              .0988502.1169   -2.597-4
GRID     2              .0988502.1216813-2.597-4
GRID     3              .0988502.1264625-2.597-4
GRID     4              .0988502.1312437-2.597-4
GRID     5              .0988502.136025 -2.597-4
GRID     6              .0988502.1408062-2.597-4
GRID     7              .0988502.1455875-2.597-4
GRID     8              .0988502.1503687-2.597-4
GRID     9              .0988502.15515  -2.597-4
GRID     10             .0940612.15515  .001244
GRID     11             .0892616.15515  .0021751
GRID     12             .0844527.15515  .0030566
GRID     13             .0796354.15515  .0038912
GRID     14             .0748103.15515  .0046796
GRID     15             .0699779.15515  .0054214
GRID     16             .0651382.15515  .0061147
GRID     17             .0602913.15515  .0067556
GRID     18             .0554371.15515  .0073384
GRID     19             .0505755.15515  .0078553
GRID     20             .0457064.15515  .0082961
$ ... 6971 like lines cut
$ Loads for Load Case : Default
$ Referenced Coordinate Frames
